data_Fe3O4
_cell_length_a 8.57()
_cell_length_b 8.57
_cell_length_c 8.57
_cell_angle_alpha 90.0
_cell_angle_beta 90.0
_cell_angle_gamma 90.0

_space_group_name_H-M_alt Fd-3m
_space_group_it_coordinate_system_code 2

loop_
_atom_site_label
_atom_site_type_symbol
_atom_site_fract_x
_atom_site_fract_y
_atom_site_fract_z
_atom_site_adp_type
_atom_site_B_iso_or_equiv
_atom_site_occupancy
Fe3A Fe3+ 0.125 0.125 0.125 uani 0.0 1.0
Fe3B Fe3+ 0.5 0.5 0.5 uani 0.0 1.0
O1 O2- 0.25521 0.25521 0.25521 uiso 0.0 1.0

loop_
_atom_site_aniso_label
_atom_site_aniso_u_11
_atom_site_aniso_u_22
_atom_site_aniso_u_33
_atom_site_aniso_u_12
_atom_site_aniso_u_13
_atom_site_aniso_u_23
Fe3A 0.0 0.0 0.0 0.0 0.0 0.0
Fe3B 0.0 0.0 0.0 0.0 0.0 0.0

loop_
_atom_site_magnetism_label
_atom_site_magnetism_lande
_atom_site_magnetism_kappa
Fe3A 2.0 1.0
Fe3B 2.0 1.0

loop_
_atom_site_magnetism_aniso_label
_atom_site_magnetism_aniso_chi_type
_atom_site_magnetism_aniso_chi_11
_atom_site_magnetism_aniso_chi_22
_atom_site_magnetism_aniso_chi_33
_atom_site_magnetism_aniso_chi_12
_atom_site_magnetism_aniso_chi_13
_atom_site_magnetism_aniso_chi_23
Fe3A cani  -0.5() -0.5 -0.5 0.0 0.0 0.0
Fe3B cani 0.2() 0.2 0.2 0.0 0.0 0.0
