data_PbSO4

_space_group_name_H-M_alt Pnma
_space_group_it_coordinate_system_code 1

_cell_length_a      8.4767
_cell_length_b      5.3967
_cell_length_c      6.9560
_cell_angle_alpha  90.0
_cell_angle_beta   90.0
_cell_angle_gamma  90.0

loop_
_atom_site_label
_atom_site_type_symbol
_atom_site_fract_x
_atom_site_fract_y
_atom_site_fract_z
_atom_site_adp_type
_atom_site_B_iso_or_equiv
_atom_site_occupancy
Pb  Pb  0.1878()   0.25       0.1684()  uiso  0.0179  1.0
S   S   0.0654()   0.25       0.6834()  uiso  0.0053  1.0
O1  O   0.9077()   0.25       0.5953()  uiso  0.0252  1.0
O2  O   0.1914()   0.25       0.5449()  uiso  0.0186  1.0
O3  O   0.0795()   0.0283()   0.8102()  uiso  0.0167  1.0
